%nprocshared=2
%mem=1000mb
%chk=E:\Desktop\zzz.chk
# b3lyp/6-311g(d,p) scrf=(smd,solvent=cyclohexane) em=gd3bj

as1

0 1
 C                 -3.42915739   -2.88706389   -0.78326381
 C                 -2.91445492   -1.55955409   -0.71251133
 C                 -1.51300779   -1.38638505   -0.75073376
 C                 -0.64869460   -2.49217976   -0.91367222
 C                 -1.23100997   -3.78358983   -1.04726671
 C                 -2.59553475   -3.97125644   -0.96644719
 C                  0.75310348   -2.27130207   -0.93846812
 C                  1.27998698   -1.00594827   -0.80317676
 C                  0.41118151    0.07167791   -0.61693224
 C                 -0.98046372   -0.12082611   -0.61658514
 C                  0.92065400    1.38246156   -0.45947251
 C                  2.41204083    1.57338550   -0.30970721
 C                  3.28626801    0.53952855   -0.43131057
 C                  2.79060336   -0.82264672   -0.87891532
 C                 -3.77571663   -0.44845745   -0.63111278
 C                 -3.23620722    0.81694953   -0.52407729
 C                 -1.83826950    0.97771825   -0.44366339
 C                  0.06516941    2.47014361   -0.38458567
 C                 -1.29350680    2.25831139   -0.22536795
 H                 -4.50753302   -3.08572939   -0.72323545
 H                 -3.02126394   -4.98369432   -1.05118319
 H                 -0.59753834   -4.66878640   -1.20010083
 S                  1.86298634   -3.67047783   -1.17285483
 C                  1.83299122   -4.45934830    0.46534013
 C                  2.61175383   -3.63411524    1.49100255
 C                  4.79956875    0.67104454   -0.24046975
 C                  5.17145251    2.00790526    0.41637401
 C                  4.35825720    3.16379986   -0.16645029
 C                  2.86685397    2.97083044    0.10440106
 C                  5.40505664   -0.50678218    0.55491186
 C                  6.90930546   -0.38160679    0.85264463
 C                  7.49513982   -1.62131913    1.54011498
 C                  8.98825761   -1.47200900    1.84338093
 C                  2.07172918    4.01838701   -0.64946228
 C                  0.55600153    3.91050291   -0.46167098
 C                 -2.21215065    3.39591412    0.22753226
 C                 -1.56827625    4.78940482    0.32041686
 C                 -0.08252816    4.70716864    0.68120741
 C                 -4.18069926    2.01906611   -0.46053055
 C                 -3.44460221    3.34490878   -0.66919521
 C                 -5.28731057   -0.62889840   -0.64489268
 C                 -5.82295225   -0.77372456    0.78641925
 C                 -7.35503083   -0.82912787    0.83863356
 C                 -7.91993167   -0.84234112    2.26333360
 C                 -9.44927239   -0.89664647    2.28851018
 H                  3.25749215   -1.58431587   -0.23624784
 H                  3.14842782   -1.00812624   -1.90822385
 H                  2.28561691   -5.45996518    0.36839134
 H                  0.79005114   -4.60187029    0.78976012
 H                  2.15840764   -2.64006291    1.62932982
 H                  3.65449503   -3.49298481    1.16576770
 H                  2.63354610   -4.12815298    2.47491802
 H                  5.24761908    0.66143115   -1.25258694
 H                  6.25099912    2.20198768    0.28946998
 H                  4.98318768    1.95358326    1.50338003
 H                  4.53888147    3.21756118   -1.25478201
 H                  4.69515666    4.12681981    0.25705427
 H                  2.68773252    3.08518075    1.18940018
 H                  5.27154623   -1.44999050   -0.00242673
 H                  4.86411441   -0.62602429    1.51070561
 H                  7.10079323    0.49631558    1.49438747
 H                  7.45245834   -0.20403751   -0.09304349
 H                  7.33953445   -2.50784665    0.90035829
 H                  6.94876320   -1.81027625    2.48110044
 H                  9.16701437   -0.61156684    2.50831331
 H                  9.56202371   -1.31007225    0.91649983
 H                  9.39143008   -2.37069395    2.33713795
 H                  2.42348048    5.03149095   -0.38665532
 H                  2.28266451    3.89674946   -1.72779334
 H                  0.13851796    4.34979122   -1.39181153
 H                 -2.53761842    3.14410222    1.25716064
 H                 -2.13448547    5.41211322    1.03386537
 H                 -1.65033623    5.30394367   -0.65432261
 H                  0.07398201    4.22258916    1.65958381
 H                  0.34736403    5.72078421    0.74826369
 H                 -4.96557169    1.95588776   -1.22949917
 H                 -4.68541064    2.04146362    0.52166621
 H                 -4.12210066    4.18811917   -0.44984537
 H                 -3.14741380    3.44890702   -1.72771755
 H                 -5.58935833   -1.49696901   -1.25095112
 H                 -5.80045269    0.20909236   -1.13782808
 H                 -5.47867313    0.07914608    1.39742679
 H                 -5.40522460   -1.68161023    1.25566782
 H                 -7.70852229   -1.72289622    0.29438918
 H                 -7.76504757    0.04667111    0.30389876
 H                 -7.57872220    0.06076254    2.79973871
 H                 -7.51335066   -1.70843371    2.81455724
 H                 -9.83810797   -0.87356081    3.31937416
 H                 -9.81197396   -1.82143804    1.81139542
 H                 -9.88396271   -0.04162316    1.74528014


