%nprocshared=4
%mem=1000MB
%chk=E:\Desktop\aaa.chk
# b3lyp/6-311g(d,p) scrf=(smd,solvent=cyclohexane) em=gd3bj

as2

0 2
 C                  0.67975945    3.35196102   -0.64668253
 C                 -0.22829202    2.13625505   -0.48758508
 C                  0.34416522    0.86830711   -0.31028818
 C                  1.73532381    0.73873880   -0.32871504
 C                  2.64889522    1.77852270   -0.41028846
 N                  2.11689561    3.04790907   -0.40215860
 C                  4.01079519    1.61028004   -0.49125434
 C                  4.57914985    0.29005525   -0.52397743
 C                  3.60601729   -0.69221609   -0.44040243
 C                  2.30417059   -0.55035020   -0.33452268
 C                  1.57670192   -1.74377626   -0.27301719
 C                  0.10167029   -1.57175908   -0.15150463
 C                 -0.45237480   -0.27831386   -0.19621811
 C                 -1.83773280   -0.12249935   -0.17295798
 C                 -2.65854051   -1.22941122    0.10456728
 C                 -2.11859515   -2.50255736    0.09538424
 C                 -0.74577763   -2.67551284   -0.00689118
 C                 -2.99219823   -3.74106049    0.22501885
 C                 -4.42125190   -3.44125460   -0.23625252
 C                 -4.96427671   -2.28412545    0.60259678
 C                 -4.15180042   -0.99543365    0.34144058
 C                 -2.41529563    1.12537355   -0.48244501
 C                 -1.60773408    2.24854480   -0.59592650
 C                 -4.60483106   -0.09650330   -0.81682191
 C                 -3.92385180    1.27180499   -0.66413868
 C                 -2.21509752    3.62179553   -0.83387803
 C                 -2.59976394    4.26839178    0.50351133
 C                 -3.23015491    5.65360828    0.32377426
 C                 -3.64478579    6.29770674    1.64689363
 C                 -6.48550656   -2.07441306    0.47787915
 C                 -7.32034067   -3.22872202    1.03933686
 O                 -0.24748122   -3.96166428    0.06285320
 S                  4.29394309   -2.26695172   -0.49680155
 C                  2.36633886   -2.82839689   -0.34781707
 C                  6.06688852    0.10369504   -0.63988472
 C                  6.69377491   -0.05304071    0.75043853
 C                  8.21699585   -0.21614186    0.70307068
 C                  8.83356503   -0.36014067    2.09480289
 H                  0.37270291    4.13899324    0.06030380
 H                  0.58628129    3.73241356   -1.67671286
 H                  4.66555977    2.49107039   -0.54737578
 H                 -2.57882152   -4.57327518   -0.36822725
 H                 -3.01065143   -4.08218536    1.27614585
 H                 -5.04193558   -4.34580820   -0.12198100
 H                 -4.43703634   -3.18018505   -1.30847175
 H                 -4.77730116   -2.55228022    1.66177952
 H                 -4.26132364   -0.38308142    1.25925188
 H                 -4.35180481   -0.55069995   -1.79049249
 H                 -5.69778130    0.04919447   -0.81663951
 H                 -4.35951655    1.78689004    0.21059733
 H                 -4.16239671    1.88039213   -1.55066840
 H                 -3.09698921    3.57521222   -1.49016284
 H                 -1.51606894    4.28453169   -1.36759580
 H                 -1.70583145    4.35836983    1.14563792
 H                 -3.30844214    3.61875613    1.04571918
 H                 -4.11555624    5.56897088   -0.33131601
 H                 -2.51568031    6.31535565   -0.19710829
 H                 -4.08930565    7.29251166    1.48370981
 H                 -2.77731057    6.42397949    2.31469237
 H                 -4.39041770    5.67842262    2.17095680
 H                 -6.75949454   -1.91445868   -0.57968952
 H                 -6.76580238   -1.15212363    1.01837713
 H                 -7.14366934   -4.16148629    0.48211679
 H                 -8.39649288   -3.00118219    0.97773086
 H                 -7.07491873   -3.41249479    2.09763010
 H                  0.53058078   -3.93702575    0.60491526
 H                  2.11791421   -3.89461035   -0.37699595
 H                  6.51047627    0.98236997   -1.13793798
 H                  6.32869213   -0.75723171   -1.27683716
 H                  6.25491498   -0.92528571    1.26594468
 H                  6.44728435    0.83126020    1.36485192
 H                  8.66274338    0.65701889    0.19426246
 H                  8.47119222   -1.10072452    0.09308003
 H                  8.43467561   -1.24841212    2.61050988
 H                  8.60484255    0.52238324    2.71385171
 H                  9.92912095   -0.46283758    2.04378471





